Circuit: * Z:\home\aalmela\Documentos\2018\Proyecto_2018\sa612\gilbert.asc

WARNING: Node N003 is floating.

Direct Newton iteration for .op point succeeded.

Date: Thu Oct 25 20:48:20 2018
Total elapsed time: 1.492 seconds.

tnom = 27
temp = 27
method = modified trap
totiter = 125938
traniter = 125931
tranpoints = 51215
accept = 32623
rejected = 18592
matrix size = 43
fillins = 26
solver = Normal
Matrix Compiler1: 3.36 KB object code size  1.3/0.9/[0.7]
Matrix Compiler2: 3.85 KB object code size  0.9/1.0/[0.8]


